4WI
  CCTOOLS-1004241121

 69 71  0  0  1  0  0  0  0  0999 V2000
    3.8700    2.0000    0.9280 C   0  0  0  0  0
    5.1020   -1.3030   -1.7080 C   0  0  0  0  0
    2.2020   -0.7410   -0.5480 C   0  0  0  0  0
   -1.0880   -0.0170    0.0860 C   0  0  0  0  0
   -4.7220    0.3660   -0.0260 C   0  0  0  0  0
    5.9100    3.1710    0.3850 C   0  0  0  0  0
    5.7810    2.8940    1.8990 C   0  0  0  0  0
   -0.3650   -2.2810   -0.8070 C   0  0  0  0  0
    4.8530    2.2070   -0.2030 C   0  0  0  0  0
    1.1820   -1.0940    0.5040 C   0  0  0  0  0
    0.3150   -3.3490    0.0760 C   0  0  0  0  0
    1.3340   -2.5690    0.9330 C   0  0  0  0  0
    0.0960   -3.2800    1.5890 C   0  0  0  0  0
   -1.0370   -2.3910    2.1040 C   0  0  0  0  0
    0.3620   -4.5470    2.4050 C   0  0  0  0  0
   -1.7500    1.9830   -1.8950 C   0  0  0  0  0
   -3.6010    0.5380   -2.7480 C   0  0  0  0  0
   -1.2390   -0.2720   -2.8430 C   0  0  0  0  0
    5.5010    0.8790   -0.5990 C   0  0  0  0  0
    4.4430   -0.0440   -1.2060 C   0  0  0  0  0
   -2.4060   -0.0770   -0.6420 C   0  0  0  0  0
   -5.7600    1.1320    0.7510 C   0  0  0  0  0
   -2.2490    0.5430   -2.0320 C   0  0  0  0  0
    4.7570   -2.4390   -1.2310 N   0  0  0  0  0
    4.4140    2.3970    2.0920 N   0  0  0  0  0
   -0.1920   -1.0130   -0.0590 N   0  0  0  0  0
    3.4510   -0.3870   -0.1830 N   0  0  0  0  0
   -3.4160    0.6680    0.1140 N   0  0  0  0  0
    2.7530    1.5460    0.8030 O   0  0  0  0  0
    1.9000   -0.7760   -1.7220 O   0  0  0  0  0
   -0.8340    0.9280    0.8030 O   0  0  0  0  0
   -5.0610   -0.5230   -0.7790 O   0  0  0  0  0
   -5.6890    2.4880    0.4140 F   0  0  0  0  0
   -7.0330    0.6410    0.4400 F   0  0  0  0  0
   -5.5240    0.9800    2.1220 F   0  0  0  0  0
    5.8650   -1.2460   -2.4700 H   0  0  0  0  0
    5.6630    4.2070    0.1560 H   0  0  0  0  0
    6.9090    2.9220    0.0260 H   0  0  0  0  0
    6.5040    2.1380    2.2070 H   0  0  0  0  0
    5.9340    3.8130    2.4650 H   0  0  0  0  0
    0.1280   -2.2200   -1.7770 H   0  0  0  0  0
   -1.4230   -2.5090   -0.9320 H   0  0  0  0  0
    4.3580    2.6620   -1.0610 H   0  0  0  0  0
    1.2800   -0.4310    1.3640 H   0  0  0  0  0
    0.5650   -4.3030   -0.3870 H   0  0  0  0  0
    2.3390   -2.9330    1.1450 H   0  0  0  0  0
   -1.4440   -1.8070    1.2780 H   0  0  0  0  0
   -1.8230   -3.0140    2.5300 H   0  0  0  0  0
   -0.6520   -1.7180    2.8690 H   0  0  0  0  0
    1.0320   -4.3130    3.2320 H   0  0  0  0  0
   -0.5800   -4.9310    2.7980 H   0  0  0  0  0
    0.8230   -5.3010    1.7660 H   0  0  0  0  0
   -1.6390    2.4250   -2.8850 H   0  0  0  0  0
   -2.4700    2.5630   -1.3170 H   0  0  0  0  0
   -0.7870    1.9870   -1.3850 H   0  0  0  0  0
   -3.9570   -0.4880   -2.8460 H   0  0  0  0  0
   -4.3210    1.1180   -2.1710 H   0  0  0  0  0
   -3.4900    0.9790   -3.7390 H   0  0  0  0  0
   -1.5630   -1.3110   -2.8870 H   0  0  0  0  0
   -1.1750    0.1320   -3.8530 H   0  0  0  0  0
   -0.2610   -0.2160   -2.3660 H   0  0  0  0  0
    6.2860    1.0630   -1.3330 H   0  0  0  0  0
    5.9320    0.4070    0.2840 H   0  0  0  0  0
    3.9500    0.4630   -2.0340 H   0  0  0  0  0
   -2.7200   -1.1160   -0.7410 H   0  0  0  0  0
    5.1820   -3.2490   -1.5550 H   0  0  0  0  0
    3.9600    2.3610    2.9480 H   0  0  0  0  0
    3.6920   -0.3590    0.7560 H   0  0  0  0  0
   -3.1450    1.3790    0.7150 H   0  0  0  0  0
  1 25  1  0  0  0
  1  9  1  0  0  0
  2 20  1  0  0  0
  2 36  1  0  0  0
  3 10  1  0  0  0
  3 30  2  0  0  0
  4 26  1  0  0  0
  4 21  1  0  0  0
  5 32  2  0  0  0
  6 37  1  0  0  0
  6 38  1  0  0  0
  7  6  1  0  0  0
  7 39  1  0  0  0
  7 40  1  0  0  0
  8 11  1  0  0  0
  8 41  1  0  0  0
  8 42  1  0  0  0
  9  6  1  0  0  0
  9 43  1  0  0  0
 10 26  1  0  0  0
 10 12  1  0  0  0
 10 44  1  0  0  0
 11 45  1  0  0  0
 12 13  1  0  0  0
 12 11  1  0  0  0
 12 46  1  0  0  0
 13 15  1  0  0  0
 13 11  1  0  0  0
 14 13  1  0  0  0
 14 47  1  0  0  0
 14 48  1  0  0  0
 14 49  1  0  0  0
 15 50  1  0  0  0
 15 51  1  0  0  0
 15 52  1  0  0  0
 16 53  1  0  0  0
 16 54  1  0  0  0
 16 55  1  0  0  0
 17 56  1  0  0  0
 17 57  1  0  0  0
 17 58  1  0  0  0
 18 23  1  0  0  0
 18 59  1  0  0  0
 18 60  1  0  0  0
 18 61  1  0  0  0
 19  9  1  0  0  0
 19 20  1  0  0  0
 19 62  1  0  0  0
 19 63  1  0  0  0
 20 27  1  0  0  0
 20 64  1  0  0  0
 21 23  1  0  0  0
 21 65  1  0  0  0
 22 34  1  0  0  0
 22  5  1  0  0  0
 23 17  1  0  0  0
 23 16  1  0  0  0
 24  2  2  0  0  0
 24 66  1  0  0  0
 25  7  1  0  0  0
 25 67  1  0  0  0
 26  8  1  0  0  0
 27  3  1  0  0  0
 27 68  1  0  0  0
 28  5  1  0  0  0
 28 21  1  0  0  0
 28 69  1  0  0  0
 29  1  2  0  0  0
 31  4  2  0  0  0
 33 22  1  0  0  0
 35 22  1  0  0  0
M  END
$$$$
