U5G
  CCTOOLS-1004241126

 84 86  0  0  1  0  0  0  0  0999 V2000
    4.7350    0.4170   -0.0290 C   0  0  0  0  0
    5.7490    1.0380   -0.6630 N   0  0  0  0  0
    4.9680   -0.4890    0.7480 O   0  0  0  0  0
    7.1320    0.6230   -0.4140 C   0  0  0  0  0
    8.0810    1.4830   -1.2520 C   0  0  0  0  0
    7.4590    0.8000    1.0700 C   0  0  0  0  0
    7.3000   -0.8480   -0.8020 C   0  0  0  0  0
    3.4630    0.8020   -0.2530 N   0  0  0  0  0
    2.3610    0.1310    0.4400 C   0  0  0  0  0
    2.1580    0.7700    1.8150 C   0  0  0  0  0
    1.7600    2.2370    1.6410 C   0  0  0  0  0
    1.0510    0.0260    2.5650 C   0  0  0  0  0
    3.4600    0.6860    2.6140 C   0  0  0  0  0
    1.0980    0.2710   -0.3710 C   0  0  0  0  0
    0.9510    1.2260   -1.1030 O   0  0  0  0  0
    0.1330   -0.6660   -0.2810 N   0  0  0  0  0
    0.1640   -1.9330    0.4860 C   0  0  0  0  0
   -1.2020   -0.6580   -0.9230 C   0  0  0  0  0
   -1.4290   -2.1190   -1.3670 C   0  0  0  0  0
   -0.5250   -2.9630   -0.4350 C   0  0  0  0  0
   -0.2400   -2.8910   -1.9430 C   0  0  0  0  0
    0.9770   -2.0800   -2.3900 C   0  0  0  0  0
   -0.5450   -4.1360   -2.7780 C   0  0  0  0  0
   -2.2590   -0.2400    0.0670 C   0  0  0  0  0
   -2.0300   -0.2930    1.2570 O   0  0  0  0  0
   -3.4580    0.1940   -0.3700 N   0  0  0  0  0
   -4.4850    0.6010    0.5920 C   0  0  0  0  0
   -5.4440    1.5890   -0.0730 C   0  0  0  0  0
   -4.6890    2.8730   -0.4270 C   0  0  0  0  0
   -5.5920    3.9820   -0.9920 C   0  0  0  0  0
   -4.0120    2.8290   -1.8070 C   0  0  0  0  0
   -4.4580    4.2900   -1.9850 C   0  0  0  0  0
   -5.8860   -1.2550   -0.0680 O   0  0  0  0  0
   -5.2640   -0.6310    1.0580 C   0  0  0  0  0
   -4.1220   -2.6910    1.2100 O   0  0  0  0  0
   -4.3190   -1.6050    1.7130 C   0  0  0  0  0
   -3.6930   -1.2690    2.8590 N   0  0  0  0  0
    5.5640    1.7610   -1.2830 H   0  0  0  0  0
    7.9610    2.5300   -0.9760 H   0  0  0  0  0
    9.1100    1.1740   -1.0670 H   0  0  0  0  0
    7.8480    1.3570   -2.3090 H   0  0  0  0  0
    6.7830    0.1870    1.6660 H   0  0  0  0  0
    8.4880    0.4910    1.2540 H   0  0  0  0  0
    7.3390    1.8470    1.3460 H   0  0  0  0  0
    7.0670   -0.9730   -1.8600 H   0  0  0  0  0
    8.3290   -1.1560   -0.6180 H   0  0  0  0  0
    6.6240   -1.4600   -0.2060 H   0  0  0  0  0
    3.2780    1.5250   -0.8730 H   0  0  0  0  0
    2.5990   -0.9260    0.5620 H   0  0  0  0  0
    0.8320    2.2970    1.0720 H   0  0  0  0  0
    1.6150    2.6930    2.6210 H   0  0  0  0  0
    2.5480    2.7670    1.1070 H   0  0  0  0  0
    1.3050   -1.0320    2.6320 H   0  0  0  0  0
    0.9510    0.4400    3.5680 H   0  0  0  0  0
    0.1090    0.1400    2.0290 H   0  0  0  0  0
    4.2490    1.2160    2.0790 H   0  0  0  0  0
    3.3160    1.1420    3.5930 H   0  0  0  0  0
    3.7440   -0.3590    2.7370 H   0  0  0  0  0
    1.1930   -2.2310    0.6860 H   0  0  0  0  0
   -0.3900   -1.8260    1.4180 H   0  0  0  0  0
   -1.2050    0.0060   -1.7870 H   0  0  0  0  0
   -2.4430   -2.4130   -1.6390 H   0  0  0  0  0
   -0.8740   -3.8910    0.0170 H   0  0  0  0  0
    1.3770   -1.5260   -1.5410 H   0  0  0  0  0
    1.7420   -2.7540   -2.7760 H   0  0  0  0  0
    0.6810   -1.3810   -3.1720 H   0  0  0  0  0
   -1.1520   -3.8560   -3.6390 H   0  0  0  0  0
    0.3880   -4.5820   -3.1210 H   0  0  0  0  0
   -1.0900   -4.8580   -2.1690 H   0  0  0  0  0
   -3.6410    0.2360   -1.3220 H   0  0  0  0  0
   -4.0100    1.0760    1.4500 H   0  0  0  0  0
   -5.8510    1.1450   -0.9820 H   0  0  0  0  0
   -6.2580    1.8240    0.6130 H   0  0  0  0  0
   -4.0310    3.2110    0.3730 H   0  0  0  0  0
   -6.4990    3.6080   -1.4670 H   0  0  0  0  0
   -5.7860    4.7890   -0.2860 H   0  0  0  0  0
   -2.9300    2.7050   -1.7590 H   0  0  0  0  0
   -4.4870    2.1390   -2.5050 H   0  0  0  0  0
   -4.8100    4.5200   -2.9910 H   0  0  0  0  0
   -3.7360    5.0160   -1.6120 H   0  0  0  0  0
   -5.2640   -1.5500   -0.7470 H   0  0  0  0  0
   -6.0280   -0.3280    1.7740 H   0  0  0  0  0
   -3.0850   -1.8960    3.2800 H   0  0  0  0  0
   -3.8500   -0.4010    3.2610 H   0  0  0  0  0
  1  3  2  0  0  0
  2  4  1  0  0  0
  2  1  1  0  0  0
  2 38  1  0  0  0
  4  7  1  0  0  0
  5  4  1  0  0  0
  5 39  1  0  0  0
  5 40  1  0  0  0
  5 41  1  0  0  0
  6  4  1  0  0  0
  6 42  1  0  0  0
  6 43  1  0  0  0
  6 44  1  0  0  0
  7 45  1  0  0  0
  7 46  1  0  0  0
  7 47  1  0  0  0
  8  1  1  0  0  0
  8  9  1  0  0  0
  8 48  1  0  0  0
  9 10  1  0  0  0
  9 49  1  0  0  0
 10 11  1  0  0  0
 10 13  1  0  0  0
 11 50  1  0  0  0
 11 51  1  0  0  0
 11 52  1  0  0  0
 12 10  1  0  0  0
 12 53  1  0  0  0
 12 54  1  0  0  0
 12 55  1  0  0  0
 13 56  1  0  0  0
 13 57  1  0  0  0
 13 58  1  0  0  0
 14 16  1  0  0  0
 14  9  1  0  0  0
 15 14  2  0  0  0
 16 17  1  0  0  0
 17 20  1  0  0  0
 17 59  1  0  0  0
 17 60  1  0  0  0
 18 16  1  0  0  0
 18 19  1  0  0  0
 18 61  1  0  0  0
 19 21  1  0  0  0
 19 20  1  0  0  0
 19 62  1  0  0  0
 20 63  1  0  0  0
 21 23  1  0  0  0
 21 20  1  0  0  0
 22 21  1  0  0  0
 22 64  1  0  0  0
 22 65  1  0  0  0
 22 66  1  0  0  0
 23 67  1  0  0  0
 23 68  1  0  0  0
 23 69  1  0  0  0
 24 18  1  0  0  0
 24 25  2  0  0  0
 26 24  1  0  0  0
 26 70  1  0  0  0
 27 26  1  0  0  0
 27 71  1  0  0  0
 28 29  1  0  0  0
 28 27  1  0  0  0
 28 72  1  0  0  0
 28 73  1  0  0  0
 29 30  1  0  0  0
 29 74  1  0  0  0
 30 75  1  0  0  0
 30 76  1  0  0  0
 31 29  1  0  0  0
 31 32  1  0  0  0
 31 77  1  0  0  0
 31 78  1  0  0  0
 32 30  1  0  0  0
 32 79  1  0  0  0
 32 80  1  0  0  0
 33 81  1  0  0  0
 34 27  1  0  0  0
 34 33  1  0  0  0
 34 82  1  0  0  0
 35 36  2  0  0  0
 36 34  1  0  0  0
 36 37  1  0  0  0
 37 83  1  0  0  0
 37 84  1  0  0  0
M  END
$$$$
