X7V
  CCTOOLS-0919241034

 65 69  0  0  1  0  0  0  0  0999 V2000
    0.0230    0.9760    0.9370 C   0  0  0  0  0
   -0.7770    1.5450   -0.0360 C   0  0  0  0  0
   -1.1930    3.3840    1.2880 C   0  0  0  0  0
   -0.4030    2.8800    2.3040 C   0  0  0  0  0
    3.6890    0.7360   -1.3950 C   0  0  0  0  0
    3.1710    1.7310   -2.4360 C   0  0  0  0  0
    5.0030    1.2260   -0.8420 C   0  0  0  0  0
    5.0200    2.2000    0.1380 C   0  0  0  0  0
    6.2250    2.6490    0.6450 C   0  0  0  0  0
    7.4130    2.1230    0.1710 C   0  0  0  0  0
    7.3950    1.1480   -0.8080 C   0  0  0  0  0
    6.1900    0.6960   -1.3120 C   0  0  0  0  0
   -3.5620   -0.5840   -1.2580 C   0  0  0  0  0
   -4.3080   -0.1660   -0.1570 C   0  0  0  0  0
   -5.7210    0.2500   -0.3330 C   0  0  0  0  0
   -6.3080    0.2180   -1.5970 C   0  0  0  0  0
   -7.6230    0.6050   -1.7540 C   0  0  0  0  0
   -8.3590    1.0250   -0.6600 C   0  0  0  0  0
   -0.8200   -3.4360   -0.2490 O   0  0  0  0  0
    0.0010   -2.6390    0.1640 C   0  0  0  0  0
    1.3640   -3.0830    0.4720 C   0  0  0  0  0
    1.8750   -4.3270    0.2360 C   0  0  0  0  0
    3.2060   -4.3080    0.6850 C   0  0  0  0  0
    3.4450   -3.0690    1.1680 C   0  0  0  0  0
    2.3350   -2.3320    1.0340 O   0  0  0  0  0
   -0.3420   -1.3470    0.3370 N   0  0  0  0  0
    0.6780   -0.3600    0.7000 C   0  0  0  0  0
   -1.3540    2.7140    0.1630 N   0  0  0  0  0
    0.2200    1.6540    2.1300 C   0  0  0  0  0
    1.6790   -0.2380   -0.4190 C   0  0  0  0  0
    2.7150    0.6170   -0.3060 N   0  0  0  0  0
    1.5530   -0.9090   -1.4220 O   0  0  0  0  0
   -1.6710   -0.9490    0.1710 C   0  0  0  0  0
   -2.2510   -0.9760   -1.0920 C   0  0  0  0  0
   -7.7820    1.0590    0.5960 C   0  0  0  0  0
   -6.4690    0.6680    0.7660 C   0  0  0  0  0
   -3.7250   -0.1400    1.1080 C   0  0  0  0  0
   -2.4120   -0.5270    1.2690 C   0  0  0  0  0
   -0.9320    1.0260   -0.9700 H   0  0  0  0  0
   -1.6820    4.3380    1.4150 H   0  0  0  0  0
   -0.2750    3.4330    3.2220 H   0  0  0  0  0
    3.8310   -0.2380   -1.8630 H   0  0  0  0  0
    3.0280    2.7050   -1.9680 H   0  0  0  0  0
    3.8950    1.8190   -3.2460 H   0  0  0  0  0
    2.2200    1.3770   -2.8350 H   0  0  0  0  0
    4.0920    2.6110    0.5080 H   0  0  0  0  0
    6.2390    3.4110    1.4110 H   0  0  0  0  0
    8.3540    2.4740    0.5670 H   0  0  0  0  0
    8.3230    0.7380   -1.1790 H   0  0  0  0  0
    6.1760   -0.0680   -2.0750 H   0  0  0  0  0
   -4.0120   -0.6060   -2.2400 H   0  0  0  0  0
   -5.7350   -0.1090   -2.4510 H   0  0  0  0  0
   -8.0790    0.5810   -2.7330 H   0  0  0  0  0
   -9.3880    1.3280   -0.7880 H   0  0  0  0  0
    1.3570   -5.1630   -0.2080 H   0  0  0  0  0
    3.9060   -5.1290    0.6500 H   0  0  0  0  0
    4.3790   -2.7280    1.5900 H   0  0  0  0  0
    1.1870   -0.6810    1.6090 H   0  0  0  0  0
    0.8440    1.2350    2.9070 H   0  0  0  0  0
    2.8160    1.1540    0.4950 H   0  0  0  0  0
   -1.6730   -1.3040   -1.9440 H   0  0  0  0  0
   -8.3610    1.3880    1.4470 H   0  0  0  0  0
   -6.0210    0.6910    1.7490 H   0  0  0  0  0
   -4.3010    0.1840    1.9620 H   0  0  0  0  0
   -1.9600   -0.5080    2.2500 H   0  0  0  0  0
  1 27  1  0  0  0
  2  1  2  0  0  0
  2 39  1  0  0  0
  3 28  2  0  0  0
  3  4  1  0  0  0
  3 40  1  0  0  0
  4 29  2  0  0  0
  4 41  1  0  0  0
  5  6  1  0  0  0
  5  7  1  0  0  0
  5 42  1  0  0  0
  6 43  1  0  0  0
  6 44  1  0  0  0
  6 45  1  0  0  0
  7 12  1  0  0  0
  8  7  2  0  0  0
  8  9  1  0  0  0
  8 46  1  0  0  0
  9 10  2  0  0  0
  9 47  1  0  0  0
 10 11  1  0  0  0
 10 48  1  0  0  0
 11 49  1  0  0  0
 12 11  2  0  0  0
 12 50  1  0  0  0
 13 51  1  0  0  0
 14 13  2  0  0  0
 14 15  1  0  0  0
 15 36  1  0  0  0
 16 15  2  0  0  0
 16 17  1  0  0  0
 16 52  1  0  0  0
 17 18  2  0  0  0
 17 53  1  0  0  0
 18 35  1  0  0  0
 18 54  1  0  0  0
 19 20  2  0  0  0
 20 26  1  0  0  0
 20 21  1  0  0  0
 21 22  2  0  0  0
 22 55  1  0  0  0
 23 22  1  0  0  0
 23 56  1  0  0  0
 24 23  2  0  0  0
 24 57  1  0  0  0
 25 24  1  0  0  0
 25 21  1  0  0  0
 26 33  1  0  0  0
 27 30  1  0  0  0
 27 26  1  0  0  0
 27 58  1  0  0  0
 28  2  1  0  0  0
 29  1  1  0  0  0
 29 59  1  0  0  0
 30 31  1  0  0  0
 31  5  1  0  0  0
 31 60  1  0  0  0
 32 30  2  0  0  0
 33 34  2  0  0  0
 34 13  1  0  0  0
 34 61  1  0  0  0
 35 62  1  0  0  0
 36 35  2  0  0  0
 36 63  1  0  0  0
 37 14  1  0  0  0
 37 64  1  0  0  0
 38 37  2  0  0  0
 38 33  1  0  0  0
 38 65  1  0  0  0
M  END
$$$$
